/*---------------------------------------------------------------------------*\
  =========                 |
  \\      /  F ield         | OpenFOAM: The Open Source CFD Toolbox
   \\    /   O peration     | Website:  https://openfoam.org
    \\  /    A nd           | Version:  6
     \\/     M anipulation  |
\*---------------------------------------------------------------------------*/
Build  : 6
Exec   : pimpleFoam -parallel
Date   : Jun 29 2020
Time   : 17:07:05
Host   : "johannes-ThinkPad-L380-Yoga"
PID    : 6069
I/O    : uncollated
